ieee9cdf.txt
26/04/09 IEEE                 100.0  2009 4 TESIS
BUS DATA FOLLOWS                    9 ITEMS
   1 BUS-1   100   1  1  3 1.04  0.     0.       0.        71.6410 27.04592 100.    1.04   999900 -99990    0.      0.        0
   2 BUS-2   100   1  1  2 1.025 9.28   0.       0.        163.    6.65366  100.    1.025  999900 -99990    0.      0.        0
   3 BUS-3   100   1  1  2 1.025 4.6647 0.       0.        85.     -10.8597 100.    1.025  999900 -99990    0.      0.        0
   4 BUS-4   100   1  1  0 1.025 -2.216 0.       0.        0.      0.       100.    1.       0.     0.      0.      0.        0
   5 BUS-5   100   1  1  0 0.995 -3.988 125.     50.       0.      0.       100.    1.       0.     0.      0.      0.        0
   6 BUS-6   100   1  1  0 1.012 -3.687 90.      30.       0.      0.       100.    1.       0.     0.      0.      0.        0
   7 BUS-7   100   1  1  0 1.025 3.7197 0.       0.        0.      0.       100.    1.       0.     0.      0.      0.        0
   8 BUS-8   100   1  1  0 1.015 0.7275 100.     35.       0.      0.       100.    1.       0.     0.      0.      0.        0
   9 BUS-9   100   1  1  0 1.032 1.9667 0.       0.        0.      0.       100.    1.       0.     0.      0.      0.        0
-999
BRANCH DATA FOLLOWS                    9 ITEMS
   4    1  1  1   2  0.        0.0576      0.     0    0     0      0    0  1.     0      0      0       0      0      0
   7    2  1  1   2  0.        0.0625      0.     0    0     0      0    0  1.     0      0      0       0      0      0
   9    3  1  1   2  0.        0.0586      0.     0    0     0      0    0  1.     0      0      0       0      0      0
   7    8  1  1      0.0085    0.072       0.149  0    0     0      0    0  0      0      0      0       0      0      0
   9    8  1  1      0.0119    0.1008      0.209  0    0     0      0    0  0      0      0      0       0      0      0
   7    5  1  1      0.032     0.161       0.306  0    0     0      0    0  0      0      0      0       0      0      0
   9    6  1  1      0.039     0.17        0.358  0    0     0      0    0  0      0      0      0       0      0      0
   5    4  1  1      0.01      0.085       0.176  0    0     0      0    0  0      0      0      0       0      0      0
   6    4  1  1      0.017     0.092       0.158  0    0     0      0    0  0      0      0      0       0      0      0
-999
LOSS ZONES FOLLOWS   0 ITEMS
-99
INTERCHANGE DATA FOLLOWS      0 ITEMS
-9
TIE LINES FOLLOWS             0 ITEMS
-999
END OF DATA
